Flow Title=
Program Version=5.07
Use Restart= 0 
Boundary Location=                ,                ,        ,        ,                ,Perimeter       ,                ,Down-streamBC                   
Boundary Location=                ,                ,        ,        ,                ,Perimeter       ,                ,Up-streamBC                     
Interval=1DAY
Flow Hydrograph= 499 
       0       0       0       0       0       0       0       0       0       0
       0       0       0       0       0       0       0       0       0       0
       0       0       0       0       0       0       0       0       0       0
       0       0       0       0     5.7     5.9     5.9     5.5     5.9     6.4
     6.3     6.1     6.2     5.9     5.7     5.9       6     5.9       6     6.4
     6.3     6.6     6.8     6.3     6.3     6.5       7     6.8     6.7     6.9
     7.2     7.1     7.2     7.3     7.1     7.2     7.1     7.1     7.3     7.4
     7.3     7.2     7.2     7.1     6.4     6.5       7     7.2     6.9     7.3
     7.2     7.5     7.1     7.6     7.5     7.1     7.4     7.3     7.5     7.5
     7.9     7.5     7.2     7.7     7.7       0     8.3     8.3     8.3     8.1
     7.7     8.1       8     7.8       8     8.2     7.8       0     7.4     6.9
     7.1     7.2     7.4     7.5     7.5       0     8.2     8.3     8.3     8.6
     8.5       0     8.7     8.4     8.4     8.2     8.4       0     8.3     8.5
     7.8     8.1       0     7.7       8     8.2     8.5     8.5     8.9     8.7
     8.7     8.7     8.5    11.5       5     7.8       0     7.6     7.5     7.5
     8.2     8.4       0     7.6       7     6.8       0    98.3       0       0
     5.9     5.9     5.2       7     5.8       0     5.2     5.8     5.7     5.8
       0     5.9     5.5       0     5.3     4.9     4.8       0     5.5     5.5
    24.2     5.2   132.7   225.1   116.4     5.8    97.3    60.8    60.2    24.5
    78.6      77   147.9    41.9    23.9    42.1    77.5   147.9    15.7    15.4
   411.4   112.3   461.1  5645.4  4182.2  4159.9   178.7    60.3      61   116.9
    61.5    62.2    62.2       0    17.9    17.5    72.9    16.8    17.3    14.4
    14.4      16      18    16.6    68.9    18.2   342.9   233.1   124.8    16.2
    70.3      70   124.7   154.3   155.6    19.1    85.6    88.8    16.9    85.2
   846.6   710.2   364.8   159.4   297.8     574   670.4     400   126.5   259.8
       0       0   928.6       0       0   331.9   196.9   126.7   126.7     127
   128.3   121.9   119.8   119.8    50.6    50.1    50.2      51    50.2      51
      50    75.6    47.9    47.6    19.6      18    18.2    19.6   141.4     930
   733.8       0   126.4    70.5    56.3    55.5    43.3    20.6    20.1    21.4
    20.4    20.6    19.6    21.4    21.2    21.2    20.1    19.6    19.8    31.5
       0       0    16.8    14.3       0       0       0       0       0       0
       0    71.2       0     4.8    73.8       0    60.2   509.7      74    28.5
    88.2    90.5    88.3    20.5      21    20.5    20.8    34.8    43.3       0
    34.7    32.3    32.5       0    20.2    20.4      63     8.1       0    43.9
       0    65.8       0      .4      .1     8.6     6.1       0     7.2     8.8
       0    59.1   158.6     6.8    75.8     4.8     6.8     4.5     6.4    10.4
    21.8       0     4.8     6.5    42.3       0     3.4    12.1    37.9    36.1
       0       0    42.5       0    42.5       0    42.7       0    42.9       0
       0       0    27.3       0       0    27.5       0       0       0       0
       0       0    27.2       0       0       0       0       0       0       0
       0    12.3    92.6      94    94.7    94.7    93.7    80.4      92    89.2
    92.2    92.7    78.3    92.8    80.2    93.7    80.5       0       0       0
       0       0       0       0       0       0       0       0       0       0
       0       0       0    25.5       0       0    22.9    14.2       0    12.7
    12.8    13.8    14.2    13.5    14.4       0    14.8    14.1    14.9    14.8
    13.9    14.6    14.3    14.8    14.8    15.5       0    14.2      15      15
       0    16.4    16.2    16.4      16    15.1    15.8       0    15.4    15.6
    16.1    15.2    14.8       0    13.5    13.9    14.1    14.5       0    14.8
      15      16       0    16.3    16.8       0    16.5    17.1    16.4    16.4
    16.1       0    16.9    16.2    16.7       0    15.9    15.2    15.2
Stage Hydrograph TW Check=0
Flow Hydrograph Slope= 0.025 
DSS Path=
Use DSS=False
Use Fixed Start Time=True
Fixed Start Date/Time=01JAN2009,0000
Is Critical Boundary=False
Critical Boundary Flow=
