Geom Title=Tawa_region
Program Version=5.07
Viewing Rectangle= 165098.538209307 , 194326.147570604 , 2528336.47089888 , 2496132.95949352 

Storage Area=Perimeter       ,179681.1218289,2511805.7426683
Storage Area Surface Line= 19 
186897.8003430762499076.65705045                
186910.5475095152499097.90900043                
186910.5475095152502041.28449333                
183045.7396600872505133.13077287                
179180.9318106592508418.21744489                
 173770.200821462508804.69822983                
171451.3161118042513828.94843409                
 167489.888066142519626.16020823                
166427.0659075482523974.06903883                
171161.455523097 2526872.6749259                
173480.3402327532522138.28531036                
 177828.249063362518273.47746093                
178891.0712219522514505.28980774                
184591.6627998582512959.36666797                
190775.3553589422507548.63567877                
192417.898694949 2502234.5248858                
192997.6198723632498852.81801755                
190775.3553589422497596.75546649                
186897.8003430762499076.65705045                
Storage Area Type= 1 
Storage Area Area=
Storage Area Min Elev=
Storage Area Is2D=-1
Storage Area Point Generation Data=,,200,200
Storage Area 2D Points= 5908 
171127.065907548 2526772.6749259170927.065907548 2526572.6749259
171127.065907548 2526572.6749259170527.065907548 2526372.6749259
170727.065907548 2526372.6749259170927.065907548 2526372.6749259
171127.065907548 2526372.6749259171327.065907548 2526372.6749259
170127.065907548 2526172.6749259170327.065907548 2526172.6749259
170527.065907548 2526172.6749259170727.065907548 2526172.6749259
170927.065907548 2526172.6749259171127.065907548 2526172.6749259
171327.065907548 2526172.6749259169927.065907548 2525972.6749259
170127.065907548 2525972.6749259170327.065907548 2525972.6749259
170527.065907548 2525972.6749259170727.065907548 2525972.6749259
170927.065907548 2525972.6749259171127.065907548 2525972.6749259
171327.065907548 2525972.6749259171527.065907548 2525972.6749259
169527.065907548 2525772.6749259169727.065907548 2525772.6749259
169927.065907548 2525772.6749259170127.065907548 2525772.6749259
170327.065907548 2525772.6749259170527.065907548 2525772.6749259
170727.065907548 2525772.6749259170927.065907548 2525772.6749259
171127.065907548 2525772.6749259171327.065907548 2525772.6749259
171527.065907548 2525772.6749259169327.065907548 2525572.6749259
169527.065907548 2525572.6749259169727.065907548 2525572.6749259
169927.065907548 2525572.6749259170127.065907548 2525572.6749259
170327.065907548 2525572.6749259170527.065907548 2525572.6749259
170727.065907548 2525572.6749259170927.065907548 2525572.6749259
171127.065907548 2525572.6749259171327.065907548 2525572.6749259
171527.065907548 2525572.6749259171727.065907548 2525572.6749259
168927.065907548 2525372.6749259169127.065907548 2525372.6749259
169327.065907548 2525372.6749259169527.065907548 2525372.6749259
169727.065907548 2525372.6749259169927.065907548 2525372.6749259
170127.065907548 2525372.6749259170327.065907548 2525372.6749259
170527.065907548 2525372.6749259170727.065907548 2525372.6749259
170927.065907548 2525372.6749259171127.065907548 2525372.6749259
171327.065907548 2525372.6749259171527.065907548 2525372.6749259
171727.065907548 2525372.6749259168527.065907548 2525172.6749259
168727.065907548 2525172.6749259168927.065907548 2525172.6749259
169127.065907548 2525172.6749259169327.065907548 2525172.6749259
169527.065907548 2525172.6749259169727.065907548 2525172.6749259
169927.065907548 2525172.6749259170127.065907548 2525172.6749259
170327.065907548 2525172.6749259170527.065907548 2525172.6749259
170727.065907548 2525172.6749259170927.065907548 2525172.6749259
171127.065907548 2525172.6749259171327.065907548 2525172.6749259
171527.065907548 2525172.6749259171727.065907548 2525172.6749259
171927.065907548 2525172.6749259168327.065907548 2524972.6749259
168527.065907548 2524972.6749259168727.065907548 2524972.6749259
168927.065907548 2524972.6749259169127.065907548 2524972.6749259
169327.065907548 2524972.6749259169527.065907548 2524972.6749259
169727.065907548 2524972.6749259169927.065907548 2524972.6749259
170127.065907548 2524972.6749259170327.065907548 2524972.6749259
170527.065907548 2524972.6749259170727.065907548 2524972.6749259
170927.065907548 2524972.6749259171127.065907548 2524972.6749259
171327.065907548 2524972.6749259171527.065907548 2524972.6749259
171727.065907548 2524972.6749259171927.065907548 2524972.6749259
167927.065907548 2524772.6749259168127.065907548 2524772.6749259
168327.065907548 2524772.6749259168527.065907548 2524772.6749259
168727.065907548 2524772.6749259168927.065907548 2524772.6749259
169127.065907548 2524772.6749259169327.065907548 2524772.6749259
169527.065907548 2524772.6749259169727.065907548 2524772.6749259
169927.065907548 2524772.6749259170127.065907548 2524772.6749259
170327.065907548 2524772.6749259170527.065907548 2524772.6749259
170727.065907548 2524772.6749259170927.065907548 2524772.6749259
171127.065907548 2524772.6749259171327.065907548 2524772.6749259
171527.065907548 2524772.6749259171727.065907548 2524772.6749259
171927.065907548 2524772.6749259172127.065907548 2524772.6749259
167527.065907548 2524572.6749259167727.065907548 2524572.6749259
167927.065907548 2524572.6749259168127.065907548 2524572.6749259
168327.065907548 2524572.6749259168527.065907548 2524572.6749259
168727.065907548 2524572.6749259168927.065907548 2524572.6749259
169127.065907548 2524572.6749259169327.065907548 2524572.6749259
169527.065907548 2524572.6749259169727.065907548 2524572.6749259
169927.065907548 2524572.6749259170127.065907548 2524572.6749259
170327.065907548 2524572.6749259170527.065907548 2524572.6749259
170727.065907548 2524572.6749259170927.065907548 2524572.6749259
171127.065907548 2524572.6749259171327.065907548 2524572.6749259
171527.065907548 2524572.6749259171727.065907548 2524572.6749259
171927.065907548 2524572.6749259172127.065907548 2524572.6749259
167327.065907548 2524372.6749259167527.065907548 2524372.6749259
167727.065907548 2524372.6749259167927.065907548 2524372.6749259
168127.065907548 2524372.6749259168327.065907548 2524372.6749259
168527.065907548 2524372.6749259168727.065907548 2524372.6749259
168927.065907548 2524372.6749259169127.065907548 2524372.6749259
169327.065907548 2524372.6749259169527.065907548 2524372.6749259
169727.065907548 2524372.6749259169927.065907548 2524372.6749259
170127.065907548 2524372.6749259170327.065907548 2524372.6749259
170527.065907548 2524372.6749259170727.065907548 2524372.6749259
170927.065907548 2524372.6749259171127.065907548 2524372.6749259
171327.065907548 2524372.6749259171527.065907548 2524372.6749259
171727.065907548 2524372.6749259171927.065907548 2524372.6749259
172127.065907548 2524372.6749259172327.065907548 2524372.6749259
166927.065907548 2524172.6749259167127.065907548 2524172.6749259
167327.065907548 2524172.6749259167527.065907548 2524172.6749259
167727.065907548 2524172.6749259167927.065907548 2524172.6749259
168127.065907548 2524172.6749259168327.065907548 2524172.6749259
168527.065907548 2524172.6749259168727.065907548 2524172.6749259
168927.065907548 2524172.6749259169127.065907548 2524172.6749259
169327.065907548 2524172.6749259169527.065907548 2524172.6749259
169727.065907548 2524172.6749259169927.065907548 2524172.6749259
170127.065907548 2524172.6749259170327.065907548 2524172.6749259
170527.065907548 2524172.6749259170727.065907548 2524172.6749259
170927.065907548 2524172.6749259171127.065907548 2524172.6749259
171327.065907548 2524172.6749259171527.065907548 2524172.6749259
171727.065907548 2524172.6749259171927.065907548 2524172.6749259
172127.065907548 2524172.6749259172327.065907548 2524172.6749259
166527.065907548 2523972.6749259166727.065907548 2523972.6749259
166927.065907548 2523972.6749259167127.065907548 2523972.6749259
167327.065907548 2523972.6749259167527.065907548 2523972.6749259
167727.065907548 2523972.6749259167927.065907548 2523972.6749259
168127.065907548 2523972.6749259168327.065907548 2523972.6749259
168527.065907548 2523972.6749259168727.065907548 2523972.6749259
168927.065907548 2523972.6749259169127.065907548 2523972.6749259
169327.065907548 2523972.6749259169527.065907548 2523972.6749259
169727.065907548 2523972.6749259169927.065907548 2523972.6749259
170127.065907548 2523972.6749259170327.065907548 2523972.6749259
170527.065907548 2523972.6749259170727.065907548 2523972.6749259
170927.065907548 2523972.6749259171127.065907548 2523972.6749259
171327.065907548 2523972.6749259171527.065907548 2523972.6749259
171727.065907548 2523972.6749259171927.065907548 2523972.6749259
172127.065907548 2523972.6749259172327.065907548 2523972.6749259
166727.065907548 2523772.6749259166927.065907548 2523772.6749259
167127.065907548 2523772.6749259167327.065907548 2523772.6749259
167527.065907548 2523772.6749259167727.065907548 2523772.6749259
167927.065907548 2523772.6749259168127.065907548 2523772.6749259
168327.065907548 2523772.6749259168527.065907548 2523772.6749259
168727.065907548 2523772.6749259168927.065907548 2523772.6749259
169127.065907548 2523772.6749259169327.065907548 2523772.6749259
169527.065907548 2523772.6749259169727.065907548 2523772.6749259
169927.065907548 2523772.6749259170127.065907548 2523772.6749259
170327.065907548 2523772.6749259170527.065907548 2523772.6749259
170727.065907548 2523772.6749259170927.065907548 2523772.6749259
171127.065907548 2523772.6749259171327.065907548 2523772.6749259
171527.065907548 2523772.6749259171727.065907548 2523772.6749259
171927.065907548 2523772.6749259172127.065907548 2523772.6749259
172327.065907548 2523772.6749259172527.065907548 2523772.6749259
166727.065907548 2523572.6749259166927.065907548 2523572.6749259
167127.065907548 2523572.6749259167327.065907548 2523572.6749259
167527.065907548 2523572.6749259167727.065907548 2523572.6749259
167927.065907548 2523572.6749259168127.065907548 2523572.6749259
168327.065907548 2523572.6749259168527.065907548 2523572.6749259
168727.065907548 2523572.6749259168927.065907548 2523572.6749259
169127.065907548 2523572.6749259169327.065907548 2523572.6749259
169527.065907548 2523572.6749259169727.065907548 2523572.6749259
169927.065907548 2523572.6749259170127.065907548 2523572.6749259
170327.065907548 2523572.6749259170527.065907548 2523572.6749259
170727.065907548 2523572.6749259170927.065907548 2523572.6749259
171127.065907548 2523572.6749259171327.065907548 2523572.6749259
171527.065907548 2523572.6749259171727.065907548 2523572.6749259
171927.065907548 2523572.6749259172127.065907548 2523572.6749259
172327.065907548 2523572.6749259172527.065907548 2523572.6749259
166727.065907548 2523372.6749259166927.065907548 2523372.6749259
167127.065907548 2523372.6749259167327.065907548 2523372.6749259
167527.065907548 2523372.6749259167727.065907548 2523372.6749259
167927.065907548 2523372.6749259168127.065907548 2523372.6749259
168327.065907548 2523372.6749259168527.065907548 2523372.6749259
168727.065907548 2523372.6749259168927.065907548 2523372.6749259
169127.065907548 2523372.6749259169327.065907548 2523372.6749259
169527.065907548 2523372.6749259169727.065907548 2523372.6749259
169927.065907548 2523372.6749259170127.065907548 2523372.6749259
170327.065907548 2523372.6749259170527.065907548 2523372.6749259
170727.065907548 2523372.6749259170927.065907548 2523372.6749259
171127.065907548 2523372.6749259171327.065907548 2523372.6749259
171527.065907548 2523372.6749259171727.065907548 2523372.6749259
171927.065907548 2523372.6749259172127.065907548 2523372.6749259
172327.065907548 2523372.6749259172527.065907548 2523372.6749259
172727.065907548 2523372.6749259166727.065907548 2523172.6749259
166927.065907548 2523172.6749259167127.065907548 2523172.6749259
167327.065907548 2523172.6749259167527.065907548 2523172.6749259
167727.065907548 2523172.6749259167927.065907548 2523172.6749259
168127.065907548 2523172.6749259168327.065907548 2523172.6749259
168527.065907548 2523172.6749259168727.065907548 2523172.6749259
168927.065907548 2523172.6749259169127.065907548 2523172.6749259
169327.065907548 2523172.6749259169527.065907548 2523172.6749259
169727.065907548 2523172.6749259169927.065907548 2523172.6749259
170127.065907548 2523172.6749259170327.065907548 2523172.6749259
170527.065907548 2523172.6749259170727.065907548 2523172.6749259
170927.065907548 2523172.6749259171127.065907548 2523172.6749259
171327.065907548 2523172.6749259171527.065907548 2523172.6749259
171727.065907548 2523172.6749259171927.065907548 2523172.6749259
172127.065907548 2523172.6749259172327.065907548 2523172.6749259
172527.065907548 2523172.6749259172727.065907548 2523172.6749259
166727.065907548 2522972.6749259166927.065907548 2522972.6749259
167127.065907548 2522972.6749259167327.065907548 2522972.6749259
167527.065907548 2522972.6749259167727.065907548 2522972.6749259
167927.065907548 2522972.6749259168127.065907548 2522972.6749259
168327.065907548 2522972.6749259168527.065907548 2522972.6749259
168727.065907548 2522972.6749259168927.065907548 2522972.6749259
169127.065907548 2522972.6749259169327.065907548 2522972.6749259
169527.065907548 2522972.6749259169727.065907548 2522972.6749259
169927.065907548 2522972.6749259170127.065907548 2522972.6749259
170327.065907548 2522972.6749259170527.065907548 2522972.6749259
170727.065907548 2522972.6749259170927.065907548 2522972.6749259
171127.065907548 2522972.6749259171327.065907548 2522972.6749259
171527.065907548 2522972.6749259171727.065907548 2522972.6749259
171927.065907548 2522972.6749259172127.065907548 2522972.6749259
172327.065907548 2522972.6749259172527.065907548 2522972.6749259
172727.065907548 2522972.6749259172927.065907548 2522972.6749259
166927.065907548 2522772.6749259167127.065907548 2522772.6749259
167327.065907548 2522772.6749259167527.065907548 2522772.6749259
167727.065907548 2522772.6749259167927.065907548 2522772.6749259
168127.065907548 2522772.6749259168327.065907548 2522772.6749259
168527.065907548 2522772.6749259168727.065907548 2522772.6749259
168927.065907548 2522772.6749259169127.065907548 2522772.6749259
169327.065907548 2522772.6749259169527.065907548 2522772.6749259
169727.065907548 2522772.6749259169927.065907548 2522772.6749259
170127.065907548 2522772.6749259170327.065907548 2522772.6749259
170527.065907548 2522772.6749259170727.065907548 2522772.6749259
170927.065907548 2522772.6749259171127.065907548 2522772.6749259
171327.065907548 2522772.6749259171527.065907548 2522772.6749259
171727.065907548 2522772.6749259171927.065907548 2522772.6749259
172127.065907548 2522772.6749259172327.065907548 2522772.6749259
172527.065907548 2522772.6749259172727.065907548 2522772.6749259
172927.065907548 2522772.6749259166927.065907548 2522572.6749259
167127.065907548 2522572.6749259167327.065907548 2522572.6749259
167527.065907548 2522572.6749259167727.065907548 2522572.6749259
167927.065907548 2522572.6749259168127.065907548 2522572.6749259
168327.065907548 2522572.6749259168527.065907548 2522572.6749259
168727.065907548 2522572.6749259168927.065907548 2522572.6749259
169127.065907548 2522572.6749259169327.065907548 2522572.6749259
169527.065907548 2522572.6749259169727.065907548 2522572.6749259
169927.065907548 2522572.6749259170127.065907548 2522572.6749259
170327.065907548 2522572.6749259170527.065907548 2522572.6749259
170727.065907548 2522572.6749259170927.065907548 2522572.6749259
171127.065907548 2522572.6749259171327.065907548 2522572.6749259
171527.065907548 2522572.6749259171727.065907548 2522572.6749259
171927.065907548 2522572.6749259172127.065907548 2522572.6749259
172327.065907548 2522572.6749259172527.065907548 2522572.6749259
172727.065907548 2522572.6749259172927.065907548 2522572.6749259
173127.065907548 2522572.6749259166927.065907548 2522372.6749259
167127.065907548 2522372.6749259167327.065907548 2522372.6749259
167527.065907548 2522372.6749259167727.065907548 2522372.6749259
167927.065907548 2522372.6749259168127.065907548 2522372.6749259
168327.065907548 2522372.6749259168527.065907548 2522372.6749259
168727.065907548 2522372.6749259168927.065907548 2522372.6749259
169127.065907548 2522372.6749259169327.065907548 2522372.6749259
169527.065907548 2522372.6749259169727.065907548 2522372.6749259
169927.065907548 2522372.6749259170127.065907548 2522372.6749259
170327.065907548 2522372.6749259170527.065907548 2522372.6749259
170727.065907548 2522372.6749259170927.065907548 2522372.6749259
171127.065907548 2522372.6749259171327.065907548 2522372.6749259
171527.065907548 2522372.6749259171727.065907548 2522372.6749259
171927.065907548 2522372.6749259172127.065907548 2522372.6749259
172327.065907548 2522372.6749259172527.065907548 2522372.6749259
172727.065907548 2522372.6749259172927.065907548 2522372.6749259
173127.065907548 2522372.6749259166927.065907548 2522172.6749259
167127.065907548 2522172.6749259167327.065907548 2522172.6749259
167527.065907548 2522172.6749259167727.065907548 2522172.6749259
167927.065907548 2522172.6749259168127.065907548 2522172.6749259
168327.065907548 2522172.6749259168527.065907548 2522172.6749259
168727.065907548 2522172.6749259168927.065907548 2522172.6749259
169127.065907548 2522172.6749259169327.065907548 2522172.6749259
169527.065907548 2522172.6749259169727.065907548 2522172.6749259
169927.065907548 2522172.6749259170127.065907548 2522172.6749259
170327.065907548 2522172.6749259170527.065907548 2522172.6749259
170727.065907548 2522172.6749259170927.065907548 2522172.6749259
171127.065907548 2522172.6749259171327.065907548 2522172.6749259
171527.065907548 2522172.6749259171727.065907548 2522172.6749259
171927.065907548 2522172.6749259172127.065907548 2522172.6749259
172327.065907548 2522172.6749259172527.065907548 2522172.6749259
172727.065907548 2522172.6749259172927.065907548 2522172.6749259
173127.065907548 2522172.6749259173327.065907548 2522172.6749259
167127.065907548 2521972.6749259167327.065907548 2521972.6749259
167527.065907548 2521972.6749259167727.065907548 2521972.6749259
167927.065907548 2521972.6749259168127.065907548 2521972.6749259
168327.065907548 2521972.6749259168527.065907548 2521972.6749259
168727.065907548 2521972.6749259168927.065907548 2521972.6749259
169127.065907548 2521972.6749259169327.065907548 2521972.6749259
169527.065907548 2521972.6749259169727.065907548 2521972.6749259
169927.065907548 2521972.6749259170127.065907548 2521972.6749259
170327.065907548 2521972.6749259170527.065907548 2521972.6749259
170727.065907548 2521972.6749259170927.065907548 2521972.6749259
171127.065907548 2521972.6749259171327.065907548 2521972.6749259
171527.065907548 2521972.6749259171727.065907548 2521972.6749259
171927.065907548 2521972.6749259172127.065907548 2521972.6749259
172327.065907548 2521972.6749259172527.065907548 2521972.6749259
172727.065907548 2521972.6749259172927.065907548 2521972.6749259
173127.065907548 2521972.6749259173327.065907548 2521972.6749259
173527.065907548 2521972.6749259167127.065907548 2521772.6749259
167327.065907548 2521772.6749259167527.065907548 2521772.6749259
167727.065907548 2521772.6749259167927.065907548 2521772.6749259
168127.065907548 2521772.6749259168327.065907548 2521772.6749259
168527.065907548 2521772.6749259168727.065907548 2521772.6749259
168927.065907548 2521772.6749259169127.065907548 2521772.6749259
169327.065907548 2521772.6749259169527.065907548 2521772.6749259
169727.065907548 2521772.6749259169927.065907548 2521772.6749259
170127.065907548 2521772.6749259170327.065907548 2521772.6749259
170527.065907548 2521772.6749259170727.065907548 2521772.6749259
170927.065907548 2521772.6749259171127.065907548 2521772.6749259
171327.065907548 2521772.6749259171527.065907548 2521772.6749259
171727.065907548 2521772.6749259171927.065907548 2521772.6749259
172127.065907548 2521772.6749259172327.065907548 2521772.6749259
172527.065907548 2521772.6749259172727.065907548 2521772.6749259
172927.065907548 2521772.6749259173127.065907548 2521772.6749259
173327.065907548 2521772.6749259173527.065907548 2521772.6749259
173727.065907548 2521772.6749259167127.065907548 2521572.6749259
167327.065907548 2521572.6749259167527.065907548 2521572.6749259
167727.065907548 2521572.6749259167927.065907548 2521572.6749259
168127.065907548 2521572.6749259168327.065907548 2521572.6749259
168527.065907548 2521572.6749259168727.065907548 2521572.6749259
168927.065907548 2521572.6749259169127.065907548 2521572.6749259
169327.065907548 2521572.6749259169527.065907548 2521572.6749259
169727.065907548 2521572.6749259169927.065907548 2521572.6749259
170127.065907548 2521572.6749259170327.065907548 2521572.6749259
170527.065907548 2521572.6749259170727.065907548 2521572.6749259
170927.065907548 2521572.6749259171127.065907548 2521572.6749259
171327.065907548 2521572.6749259171527.065907548 2521572.6749259
171727.065907548 2521572.6749259171927.065907548 2521572.6749259
172127.065907548 2521572.6749259172327.065907548 2521572.6749259
172527.065907548 2521572.6749259172727.065907548 2521572.6749259
172927.065907548 2521572.6749259173127.065907548 2521572.6749259
173327.065907548 2521572.6749259173527.065907548 2521572.6749259
173727.065907548 2521572.6749259173927.065907548 2521572.6749259
167127.065907548 2521372.6749259167327.065907548 2521372.6749259
167527.065907548 2521372.6749259167727.065907548 2521372.6749259
167927.065907548 2521372.6749259168127.065907548 2521372.6749259
168327.065907548 2521372.6749259168527.065907548 2521372.6749259
168727.065907548 2521372.6749259168927.065907548 2521372.6749259
169127.065907548 2521372.6749259169327.065907548 2521372.6749259
169527.065907548 2521372.6749259169727.065907548 2521372.6749259
169927.065907548 2521372.6749259170127.065907548 2521372.6749259
170327.065907548 2521372.6749259170527.065907548 2521372.6749259
170727.065907548 2521372.6749259170927.065907548 2521372.6749259
171127.065907548 2521372.6749259171327.065907548 2521372.6749259
171527.065907548 2521372.6749259171727.065907548 2521372.6749259
171927.065907548 2521372.6749259172127.065907548 2521372.6749259
172327.065907548 2521372.6749259172527.065907548 2521372.6749259
172727.065907548 2521372.6749259172927.065907548 2521372.6749259
173127.065907548 2521372.6749259173327.065907548 2521372.6749259
173527.065907548 2521372.6749259173727.065907548 2521372.6749259
173927.065907548 2521372.6749259174127.065907548 2521372.6749259
167327.065907548 2521172.6749259167527.065907548 2521172.6749259
167727.065907548 2521172.6749259167927.065907548 2521172.6749259
168127.065907548 2521172.6749259168327.065907548 2521172.6749259
168527.065907548 2521172.6749259168727.065907548 2521172.6749259
168927.065907548 2521172.6749259169127.065907548 2521172.6749259
169327.065907548 2521172.6749259169527.065907548 2521172.6749259
169727.065907548 2521172.6749259169927.065907548 2521172.6749259
170127.065907548 2521172.6749259170327.065907548 2521172.6749259
170527.065907548 2521172.6749259170727.065907548 2521172.6749259
170927.065907548 2521172.6749259171127.065907548 2521172.6749259
171327.065907548 2521172.6749259171527.065907548 2521172.6749259
171727.065907548 2521172.6749259171927.065907548 2521172.6749259
172127.065907548 2521172.6749259172327.065907548 2521172.6749259
172527.065907548 2521172.6749259172727.065907548 2521172.6749259
172927.065907548 2521172.6749259173127.065907548 2521172.6749259
173327.065907548 2521172.6749259173527.065907548 2521172.6749259
173727.065907548 2521172.6749259173927.065907548 2521172.6749259
174127.065907548 2521172.6749259174327.065907548 2521172.6749259
167327.065907548 2520972.6749259167527.065907548 2520972.6749259
167727.065907548 2520972.6749259167927.065907548 2520972.6749259
168127.065907548 2520972.6749259168327.065907548 2520972.6749259
168527.065907548 2520972.6749259168727.065907548 2520972.6749259
168927.065907548 2520972.6749259169127.065907548 2520972.6749259
169327.065907548 2520972.6749259169527.065907548 2520972.6749259
169727.065907548 2520972.6749259169927.065907548 2520972.6749259
170127.065907548 2520972.6749259170327.065907548 2520972.6749259
170527.065907548 2520972.6749259170727.065907548 2520972.6749259
170927.065907548 2520972.6749259171127.065907548 2520972.6749259
171327.065907548 2520972.6749259171527.065907548 2520972.6749259
171727.065907548 2520972.6749259171927.065907548 2520972.6749259
172127.065907548 2520972.6749259172327.065907548 2520972.6749259
172527.065907548 2520972.6749259172727.065907548 2520972.6749259
172927.065907548 2520972.6749259173127.065907548 2520972.6749259
173327.065907548 2520972.6749259173527.065907548 2520972.6749259
173727.065907548 2520972.6749259173927.065907548 2520972.6749259
174127.065907548 2520972.6749259174327.065907548 2520972.6749259
174527.065907548 2520972.6749259167327.065907548 2520772.6749259
167527.065907548 2520772.6749259167727.065907548 2520772.6749259
167927.065907548 2520772.6749259168127.065907548 2520772.6749259
168327.065907548 2520772.6749259168527.065907548 2520772.6749259
168727.065907548 2520772.6749259168927.065907548 2520772.6749259
169127.065907548 2520772.6749259169327.065907548 2520772.6749259
169527.065907548 2520772.6749259169727.065907548 2520772.6749259
169927.065907548 2520772.6749259170127.065907548 2520772.6749259
170327.065907548 2520772.6749259170527.065907548 2520772.6749259
170727.065907548 2520772.6749259170927.065907548 2520772.6749259
171127.065907548 2520772.6749259171327.065907548 2520772.6749259
171527.065907548 2520772.6749259171727.065907548 2520772.6749259
171927.065907548 2520772.6749259172127.065907548 2520772.6749259
172327.065907548 2520772.6749259172527.065907548 2520772.6749259
172727.065907548 2520772.6749259172927.065907548 2520772.6749259
173127.065907548 2520772.6749259173327.065907548 2520772.6749259
173527.065907548 2520772.6749259173727.065907548 2520772.6749259
173927.065907548 2520772.6749259174127.065907548 2520772.6749259
174327.065907548 2520772.6749259174527.065907548 2520772.6749259
174727.065907548 2520772.6749259174927.065907548 2520772.6749259
167327.065907548 2520572.6749259167527.065907548 2520572.6749259
167727.065907548 2520572.6749259167927.065907548 2520572.6749259
168127.065907548 2520572.6749259168327.065907548 2520572.6749259
168527.065907548 2520572.6749259168727.065907548 2520572.6749259
168927.065907548 2520572.6749259169127.065907548 2520572.6749259
169327.065907548 2520572.6749259169527.065907548 2520572.6749259
169727.065907548 2520572.6749259169927.065907548 2520572.6749259
170127.065907548 2520572.6749259170327.065907548 2520572.6749259
170527.065907548 2520572.6749259170727.065907548 2520572.6749259
170927.065907548 2520572.6749259171127.065907548 2520572.6749259
171327.065907548 2520572.6749259171527.065907548 2520572.6749259
171727.065907548 2520572.6749259171927.065907548 2520572.6749259
172127.065907548 2520572.6749259172327.065907548 2520572.6749259
172527.065907548 2520572.6749259172727.065907548 2520572.6749259
172927.065907548 2520572.6749259173127.065907548 2520572.6749259
173327.065907548 2520572.6749259173527.065907548 2520572.6749259
173727.065907548 2520572.6749259173927.065907548 2520572.6749259
174127.065907548 2520572.6749259174327.065907548 2520572.6749259
174527.065907548 2520572.6749259174727.065907548 2520572.6749259
174927.065907548 2520572.6749259175127.065907548 2520572.6749259
167527.065907548 2520372.6749259167727.065907548 2520372.6749259
167927.065907548 2520372.6749259168127.065907548 2520372.6749259
168327.065907548 2520372.6749259168527.065907548 2520372.6749259
168727.065907548 2520372.6749259168927.065907548 2520372.6749259
169127.065907548 2520372.6749259169327.065907548 2520372.6749259
169527.065907548 2520372.6749259169727.065907548 2520372.6749259
169927.065907548 2520372.6749259170127.065907548 2520372.6749259
170327.065907548 2520372.6749259170527.065907548 2520372.6749259
170727.065907548 2520372.6749259170927.065907548 2520372.6749259
171127.065907548 2520372.6749259171327.065907548 2520372.6749259
171527.065907548 2520372.6749259171727.065907548 2520372.6749259
171927.065907548 2520372.6749259172127.065907548 2520372.6749259
172327.065907548 2520372.6749259172527.065907548 2520372.6749259
172727.065907548 2520372.6749259172927.065907548 2520372.6749259
173127.065907548 2520372.6749259173327.065907548 2520372.6749259
173527.065907548 2520372.6749259173727.065907548 2520372.6749259
173927.065907548 2520372.6749259174127.065907548 2520372.6749259
174327.065907548 2520372.6749259174527.065907548 2520372.6749259
174727.065907548 2520372.6749259174927.065907548 2520372.6749259
175127.065907548 2520372.6749259175327.065907548 2520372.6749259
167527.065907548 2520172.6749259167727.065907548 2520172.6749259
167927.065907548 2520172.6749259168127.065907548 2520172.6749259
168327.065907548 2520172.6749259168527.065907548 2520172.6749259
168727.065907548 2520172.6749259168927.065907548 2520172.6749259
169127.065907548 2520172.6749259169327.065907548 2520172.6749259
169527.065907548 2520172.6749259169727.065907548 2520172.6749259
169927.065907548 2520172.6749259170127.065907548 2520172.6749259
170327.065907548 2520172.6749259170527.065907548 2520172.6749259
170727.065907548 2520172.6749259170927.065907548 2520172.6749259
171127.065907548 2520172.6749259171327.065907548 2520172.6749259
171527.065907548 2520172.6749259171727.065907548 2520172.6749259
171927.065907548 2520172.6749259172127.065907548 2520172.6749259
172327.065907548 2520172.6749259172527.065907548 2520172.6749259
172727.065907548 2520172.6749259172927.065907548 2520172.6749259
173127.065907548 2520172.6749259173327.065907548 2520172.6749259
173527.065907548 2520172.6749259173727.065907548 2520172.6749259
173927.065907548 2520172.6749259174127.065907548 2520172.6749259
174327.065907548 2520172.6749259174527.065907548 2520172.6749259
174727.065907548 2520172.6749259174927.065907548 2520172.6749259
175127.065907548 2520172.6749259175327.065907548 2520172.6749259